/*--------------------------------*- C++ -*----------------------------------*\
| =========                 |                                                 |
| \\      /  F ield         | OpenFOAM: The Open Source CFD Toolbox           |
|  \\    /   O peration     | Version:  v1906                                 |
|   \\  /    A nd           | Web:      www.OpenFOAM.com                      |
|    \\/     M anipulation  |                                                 |
\*---------------------------------------------------------------------------*/
FoamFile
{
    version     2.0;
    format      ascii;
    class       dictionary;
    location    "system";
    object      createPatchDict;
}
// * * * * * * * * * * * * * * * * * * * * * * * * * * * * * * * * * * * * * //

#include                        "../turbo_values"

pointSync                       false;

patches
(
    {
        name                    periodic_top;
        patchInfo
        {
            type                cyclicAMI;
            neighbourPatch      periodic_bot;
            transform           translational;
            separationVector    $TranslationPerTop;
        }
        constructFrom           patches;
        patches                 (per_top);
    }
 
    {
        name                    periodic_bot;
        patchInfo
        {
            type                cyclicAMI;
            neighbourPatch      periodic_top;
            transform           translational;
            separationVector    $TranslationPerTop;
        }
        constructFrom           patches;
        patches                 (per_bot);
    }

    {
        name                    wall_top;
        patchInfo
        {
            type                wall;
        }
        constructFrom           patches;
        patches                 (profile_top);
    }

    {
        name                    wall_bot;
        patchInfo
        {
            type                wall;
        }
        constructFrom           patches;
        patches                 (profile_bot);
    }

    {
        name                    wall_te;
        patchInfo
        {
            type                wall;
        }
        constructFrom           patches;
        patches                 (profile_te);
    }

    {
        name                    topAndBot;
        patchInfo
        {
            type                empty;
        }
        constructFrom           patches;
        patches                 (empty);
    }
);

// ************************************************************************* //
