/*--------------------------------*- C++ -*----------------------------------*\
| =========                 |                                                 |
| \\      /  F ield         | OpenFOAM: The Open Source CFD Toolbox           |
|  \\    /   O peration     | Version:  v1906                                 |
|   \\  /    A nd           | Web:      www.OpenFOAM.com                      |
|    \\/     M anipulation  |                                                 |
\*---------------------------------------------------------------------------*/
FoamFile
{
    version     2.0;
    format      ascii;
    class       dictionary;
    location    "system";
    object      fvSolution;
}
// * * * * * * * * * * * * * * * * * * * * * * * * * * * * * * * * * * * * * //

solvers
{
    p
    {
        solver          PCG;
        preconditioner  DIC;

        minIter         3;
        tolerance       1e-7;
        relTol          0;
    }

    U
    {
        solver          PBiCGStab;
        preconditioner  DILU;

        minIter         3;
        tolerance       1e-8;
        relTol          0;
    }

    "(k|omega)"
    {
        solver          PBiCGStab;
        preconditioner  DILU;

        minIter         3;
        tolerance       1e-8;
        relTol          0;
    }

    Phi
    {
        $p;
    }
}


potentialFlow
{
    nNonOrthogonalCorrectors 30;
}


SIMPLE
{
    consistent          true;
    residualControl
    {
        p               1e-4;
        U               1e-4;
        "(k|omega)"     1e-4;
    }
}


relaxationFactors
{
    equations
    {
        U               0.9;
        "(k|omega)"     0.7;
    }
}


cache
{
    grad(U);
}

// ************************************************************************* //
