/*--------------------------------*- C++ -*----------------------------------*\
| =========                 |                                                 |
| \\      /  F ield         | OpenFOAM: The Open Source CFD Toolbox           |
|  \\    /   O peration     | Version:  v1906                                 |
|   \\  /    A nd           | Web:      www.OpenFOAM.com                      |
|    \\/     M anipulation  |                                                 |
\*---------------------------------------------------------------------------*/
FoamFile
{
    version     2.0;
    format      ascii;
    class       volScalarField;
    location    "0";
    object      omega;
}
// * * * * * * * * * * * * * * * * * * * * * * * * * * * * * * * * * * * * * //

#include		"../turbo_values";

dimensions      [0 0 -1 0 0 0 0];

internalField   uniform $TurbulenceSpecificDissipationRate;

boundaryField
{
    inlet
    {
        type            fixedValue;
        value           $internalField;
    }

    outlet
    {
        type            freestream;
		freestreamValue	$internalField;
		value			$internalField;
    }

    ".*wall.*"
    {
        type            omegaWallFunction;
		value			$internalField;
		blended			true;
    }

    ".*periodic.*"
    {
        type            cyclicAMI;
    }

	topAndBot
	{
		type			empty;
	}
}


// ************************************************************************* //
