/*--------------------------------*- C++ -*----------------------------------*\
| =========                 |                                                 |
| \\      /  F ield         | OpenFOAM: The Open Source CFD Toolbox           |
|  \\    /   O peration     | Version:  v1906                                 |
|   \\  /    A nd           | Web:      www.OpenFOAM.com                      |
|    \\/     M anipulation  |                                                 |
\*---------------------------------------------------------------------------*/
FoamFile
{
    version     2.0;
    format      ascii;
    class       volScalarField;
    location    "0";
    object      p;
}
// * * * * * * * * * * * * * * * * * * * * * * * * * * * * * * * * * * * * * //

#include		"../turbo_values";

dimensions      [0 2 -2 0 0 0 0];

internalField   uniform $TotalPressureDifference;

boundaryField
{
    inlet
    {
        type            zeroGradient;
    }

    outlet
    {
        type            totalPressure;
        p0              $internalField;;
        value           $internalField;
    }

    ".*wall.*"
    {
        type            zeroGradient;
    }

    ".*periodic.*"
    {
        type            cyclicAMI;
    }

	topAndBot
	{
		type			empty;
	}
}

// ************************************************************************* //
