/*--------------------------------*- C++ -*----------------------------------*\
| =========                 |                                                 |
| \\      /  F ield         | OpenFOAM: The Open Source CFD Toolbox           |
|  \\    /   O peration     | Version:  v1906                                 |
|   \\  /    A nd           | Web:      www.OpenFOAM.com                      |
|    \\/     M anipulation  |                                                 |
\*---------------------------------------------------------------------------*/
FoamFile
{
    version     2.0;
    format      ascii;
    class       volVectorField;
    location    "0";
    object      U;
}
// * * * * * * * * * * * * * * * * * * * * * * * * * * * * * * * * * * * * * //

#include 		"../turbo_values";

dimensions      [0 1 -1 0 0 0 0];

internalField   uniform $InletRelativeVelocity;

boundaryField
{
    inlet
    {
        type            fixedValue;
		value			$internalField;
    }

    outlet
    {
        type            freestreamVelocity;
		freestreamValue	uniform (0 0 0);
		value			$internalField;
    }

    ".*wall.*"
    {
        type            noSlip;
    }

    ".*periodic.*"
    {
        type            cyclicAMI;
    }

    topAndBot
    {
        type            empty;
    }
}


// ************************************************************************* //
